
 *******************************************************************************

         NASA-GLENN CHEMICAL EQUILIBRIUM PROGRAM CEA2, MAY 21, 2004
                   BY  BONNIE MCBRIDE AND SANFORD GORDON
      REFS: NASA RP-1311, PART I, 1994 AND NASA RP-1311, PART II, 1996

 *******************************************************************************



 !  EXAMPLE 14:
 !     (a)  Output from this case is used 1) to illustrate the effect of
 !          condensed species on volume and molecular weight (see sec.2.2,part I)
 !     (b)  Assigned-temperature-and-pressure problem (tp).
 !     (c)  Reactants are H2(L) and O2(L) and amounts are specified in moles.
 !     (d)  The "exploded" formulas are given to save the program looking them
 !          up.  Reactant enthalpies are not needed for assigned temperature
 !          problems.
 !     (e)  Assigned pressure in atmospheres is p,atm =.05.
 !     (f)  Assigned temperatures in kelvin are t,k =1000,500,351,305,304.3,
 !          304, 300.
 !     (g)  Print intermediate output for the fifth point with debug = 5.
  
 reac      name H2(L) moles=100
           name O2(L) moles=60
  
 prob      tp  p,atm=.05  case=14
           t,k = 1000,500,350,305,304.3,304.2,304,300,
  
 output    siunits  debug
  
 end

 OPTIONS: TP=T  HP=F  SP=F  TV=F  UV=F  SV=F  DETN=F  SHOCK=F  REFL=F  INCD=F
 RKT=F  FROZ=F  EQL=F  IONS=F  SIUNIT=T  DEBUGF=F  SHKDBG=F  DETDBG=F  TRNSPT=F

 T,K =  1000.0000   500.0000   350.0000   305.0000   304.3000   304.2000   304.0000

 T,K =   300.0000

 TRACE= 0.00E+00  S/R= 0.000000E+00  H/R= 0.000000E+00  U/R= 0.000000E+00

 P,BAR =     0.050662

    REACTANT           MOLES    (ENERGY/R),K   TEMP,K  DENSITY
        EXPLODED FORMULA
 N: H2(L)          100.000000  -0.108389E+04    20.27  0.0000
          H  2.00000
 N: O2(L)           60.000000  -0.156101E+04    90.17  0.0000
          O  2.00000

  SPECIES BEING CONSIDERED IN THIS SYSTEM
 (CONDENSED PHASE MAY HAVE NAME LISTED SEVERAL TIMES)
  LAST thermo.inp UPDATE:    9/09/04

  g 6/97  *H               g 4/02  HO2              tpis78  *H2            
  g 8/89  H2O              g 6/99  H2O2             g 5/97  *O             
  g 4/02  *OH              tpis89  *O2              g 8/01  O3             
  g11/99  H2O(cr)          g 8/01  H2O(L)           g 8/01  H2O(L)         

 O/F =   0.000000

                       EFFECTIVE FUEL     EFFECTIVE OXIDANT        MIXTURE
 ENTHALPY                  h(2)/R              h(1)/R               h0/R
 (KG-MOL)(K)/KG       -0.95238117E+02      0.00000000E+00     -0.95238117E+02

 KG-FORM.WT./KG             bi(2)               bi(1)               b0i
  *H                   0.94272209E-01      0.00000000E+00      0.94272209E-01
  *O                   0.56563325E-01      0.00000000E+00      0.56563325E-01

 POINT ITN      T            H           O 
   1   10    1000.000     -20.527     -15.973
   2    3     500.000     -34.596     -15.230
   3    1     350.000     -46.944     -15.049
   4    1     305.000     -53.061     -15.028
   5    1     304.300     -53.171     -15.027
 ADD  H2O(L)         
   5    3     304.300     -53.217     -14.951
   6    3     304.200     -53.247     -14.928
   7    4     304.000     -53.306     -14.884
   8    6     300.000     -54.289     -14.426




               THERMODYNAMIC EQUILIBRIUM PROPERTIES AT ASSIGNED

                           TEMPERATURE AND PRESSURE

 CASE = 14             

             REACTANT                       MOLES         ENERGY      TEMP
                                                         KJ/KG-MOL      K
 NAME        H2(L)                      100.0000000     -9012.000     20.270
 NAME        O2(L)                       60.0000000    -12979.000     90.170

 O/F=    0.00000  %FUEL=  0.000000  R,EQ.RATIO= 0.833333  PHI,EQ.RATIO= 0.000000

 THERMODYNAMIC PROPERTIES

 P, BAR           0.05066  0.05066  0.05066  0.05066  0.05066  0.05066  0.05066  0.05066
 T, K             1000.00   500.00   350.00   305.00   304.30   304.20   304.00   300.00
 RHO, KG/CU M    1.1752-2 2.3504-2 3.3577-2 3.8530-2 4.4986-2 4.7154-2 5.1463-2 1.3035-1
 H, KJ/KG        -10066.0 -11043.6 -11309.1 -11386.9 -11709.2 -11798.3 -11953.3 -12988.7
 U, KJ/KG        -10497.1 -11259.2 -11460.0 -11518.4 -11821.8 -11905.7 -12051.7 -13027.6
 G, KJ/KG        -23601.6 -17139.8 -15355.8 -14840.7 -14833.0 -14832.0 -14830.0 -14801.2
 S, KJ/(KG)(K)    13.5356  12.1924  11.5619  11.3239  10.2656   9.9726   9.4630   6.0416

 M, (1/n)          19.287   19.287   19.287   19.287   22.466   23.541   25.676   64.179
 MW, MOL WT        19.287   19.287   19.287   19.287   19.287   19.287   19.287   19.287
 (dLV/dLP)t      -1.00000 -1.00000 -1.00000 -1.00000 -9.44324 -9.01195 -8.26277 -3.30560
 (dLV/dLT)p        1.0000   1.0000   1.0000   1.0000 146.9896 139.5911 126.7383  41.6028
 Cp, KJ/(KG)(K)    2.1108   1.8069   1.7370   1.7233 936.2427 848.8372 707.1959  95.8701
 GAMMAs            1.2567   1.3133   1.3301   1.3336   1.1080   1.1059   1.1018   1.0344
 SON VEL,M/SEC      736.0    532.1    448.0    418.8    353.3    344.7    329.3    200.5

 MOLE FRACTIONS

 H2O              0.90909  0.90909  0.90909  0.90909  0.76757  0.72836  0.66025  0.20960
 *O2              0.09091  0.09091  0.09091  0.09091  0.09091  0.09091  0.09091  0.09091
 H2O(L)           0.00000  0.00000  0.00000  0.00000  0.14152  0.18073  0.24884  0.69949

  * THERMODYNAMIC PROPERTIES FITTED TO 20000.K

    PRODUCTS WHICH WERE CONSIDERED BUT WHOSE MOLE FRACTIONS
    WERE LESS THAN 5.000000E-06 FOR ALL ASSIGNED CONDITIONS

 *H              HO2             *H2             H2O2            *O             
 *OH             O3              H2O(cr)        



