
 *******************************************************************************

         NASA-GLENN CHEMICAL EQUILIBRIUM PROGRAM CEA2, MAY 21, 2004
                   BY  BONNIE MCBRIDE AND SANFORD GORDON
      REFS: NASA RP-1311, PART I, 1994 AND NASA RP-1311, PART II, 1996

 *******************************************************************************



 #  EXAMPLE 1:
 #     (a)  Assigned-temperature-and-pressure problem (tp).
 #     (b)  Reactants are H2 and Air.  Since "exploded" formulas are not given,
 #          these formulas will be taken from the thermodynamic data library,
 #          thermo.lib.
 #     (c)  Calculations are for two equivalence ratios (r,eq.ratio =1,1.5).
 #     (d)  Assigned pressures are 1, 0.1, and 0.01 atm (p(atm)=1,.1,.01).
 #     (e)  Assigned temperatures are 3000 and 2000 K (t(k)=3000,2000).
 #     (f)  'only' dataset is used to restrict possible products.
 #     (g)  Energy units in the final tables are in calories (calories).
  
 # 'problem' dataset:
    problem case=Example-1 tp  p(atm)=1,.1,.01,t(k)=3000,2000,
              r,eq.ratio=1,1.5
 # 'reactants' dataset:
    reac
      fuel= H2  moles = 1.
      oxid= Air moles = 1.
 # 'only' dataset:
    only  Ar    C   CO  CO2  H   H2   H2O  HNO   HO2   HNO2  HNO3  N   NH
       NO   N2   N2O3  O  O2  OH  O3
 # 'output' dataset:
    output calories
 # 'end' dataset
    end

 OPTIONS: TP=T  HP=F  SP=F  TV=F  UV=F  SV=F  DETN=F  SHOCK=F  REFL=F  INCD=F
 RKT=F  FROZ=F  EQL=F  IONS=F  SIUNIT=F  DEBUGF=F  SHKDBG=F  DETDBG=F  TRNSPT=F

 T,K =  3000.0000  2000.0000

 TRACE= 0.00E+00  S/R= 0.000000E+00  H/R= 0.000000E+00  U/R= 0.000000E+00

 P,BAR =     1.013250     0.101325     0.010133

    REACTANT           MOLES    (ENERGY/R),K   TEMP,K  DENSITY
        EXPLODED FORMULA
 F: H2               1.000000   0.000000E+00     0.00  0.0000
          H  2.00000
 O: Air              1.000000   0.000000E+00     0.00  0.0000
          N  1.56168  O  0.41959  AR 0.00937  C  0.00032

  SPECIES BEING CONSIDERED IN THIS SYSTEM
 (CONDENSED PHASE MAY HAVE NAME LISTED SEVERAL TIMES)
  LAST thermo.inp UPDATE:    9/09/04

  g 3/98  *Ar              g 7/97  *C               tpis79  *CO            
  g 9/99  *CO2             g 6/97  *H               g10/01  HNO            
  tpis89  HNO2             g 5/99  HNO3             g 4/02  HO2            
  tpis78  *H2              g 8/89  H2O              g 5/97  *N             
  g 4/99  *NH              tpis89  *NO              tpis78  *N2            
  g 4/99  N2O3             g 5/97  *O               g 4/02  *OH            
  tpis89  *O2              g 8/01  O3             

 O/F =  34.296226

                       EFFECTIVE FUEL     EFFECTIVE OXIDANT        MIXTURE
 ENTHALPY                  h(2)/R              h(1)/R               h0/R
 (KG-MOL)(K)/KG        0.00000000E+00      0.00000000E+00      0.00000000E+00

 KG-FORM.WT./KG             bi(2)               bi(1)               b0i
  *H                   0.99212255E+00      0.00000000E+00      0.28108460E-01
  *N                   0.00000000E+00      0.53915890E-01      0.52388364E-01
  *O                   0.00000000E+00      0.14486046E-01      0.14075632E-01
  *Ar                  0.00000000E+00      0.32331996E-03      0.31415977E-03
  *C                   0.00000000E+00      0.11013248E-04      0.10701224E-04

 POINT ITN      T            H           N           O           AR
                    C 
   1   13    3000.000     -11.765     -14.452     -17.125     -27.079
                 -25.128
   2    6    2000.000     -12.627     -13.684     -17.819     -26.104
                 -27.997
   3    5    3000.000     -12.813     -15.668     -18.103     -29.508
                 -26.376
   4    7    2000.000     -13.410     -14.837     -18.568     -28.409
                 -28.845
   5    6    3000.000     -14.313     -16.919     -19.504     -32.012
                 -27.372
   6    8    2000.000     -14.199     -15.991     -19.326     -30.717
                 -29.723




               THERMODYNAMIC EQUILIBRIUM PROPERTIES AT ASSIGNED

                           TEMPERATURE AND PRESSURE

 CASE = Example-1      

             REACTANT                       MOLES         ENERGY      TEMP
                                                          CAL/MOL       K
 FUEL        H2                           1.0000000         0.000      0.000
 OXIDANT     Air                          1.0000000         0.000      0.000

 O/F=   34.29623  %FUEL=  2.833164  R,EQ.RATIO= 1.000000  PHI,EQ.RATIO= 1.000000

 THERMODYNAMIC PROPERTIES

 P, ATM            1.0000   1.0000  0.10000  0.10000  0.01000  0.01000
 T, K             3000.00  2000.00  3000.00  2000.00  3000.00  2000.00
 RHO, G/CC       9.1781-5 1.4989-4 8.0851-6 1.4955-5 6.6136-7 1.4875-6
 H, CAL/G          663.71  -203.57  1369.55  -191.83  2647.10  -164.35
 U, CAL/G          399.86  -365.13  1070.02  -353.76  2280.92  -327.16
 G, CAL/G        -7974.53 -5290.41 -8616.70 -5662.79 -9380.96 -6036.51
 S, CAL/(G)(K)     2.8794   2.5434   3.3287   2.7355   4.0094   2.9361

 M, (1/n)          22.594   24.600   19.903   24.544   16.281   24.412
 (dLV/dLP)t      -1.03442 -1.00064 -1.07867 -1.00146 -1.07479 -1.00358
 (dLV/dLT)p        1.6957   1.0205   2.5333   1.0463   2.4133   1.1111
 Cp, CAL/(G)(K)    1.6816   0.4552   3.4398   0.5215   3.7168   0.6858
 GAMMAs            1.1312   1.2258   1.1206   1.2026   1.1318   1.1668
 SON VEL,M/SEC     1117.5    910.3   1185.1    902.7   1316.8    891.5

 MOLE FRACTIONS

 *Ar              0.00710  0.00773  0.00625  0.00771  0.00511  0.00767
 *CO              0.00017  0.00001  0.00018  0.00002  0.00017  0.00004
 *CO2             0.00007  0.00025  0.00003  0.00024  0.00001  0.00022
 *H               0.04075  0.00009  0.14289  0.00041  0.31894  0.00186
 HO2              0.00001  0.00000  0.00001  0.00000  0.00000  0.00000
 *H2              0.06728  0.00306  0.08272  0.00638  0.04121  0.01319
 H2O              0.20730  0.34207  0.09579  0.33714  0.01176  0.32637
 *N               0.00001  0.00000  0.00003  0.00000  0.00009  0.00000
 *NO              0.01230  0.00048  0.01371  0.00072  0.00967  0.00107
 *N2              0.58568  0.64414  0.51448  0.64255  0.42158  0.63891
 *O               0.01540  0.00002  0.05787  0.00010  0.14261  0.00047
 *OH              0.04517  0.00113  0.05953  0.00244  0.03275  0.00519
 *O2              0.01876  0.00102  0.02650  0.00228  0.01610  0.00502

  * THERMODYNAMIC PROPERTIES FITTED TO 20000.K

    PRODUCTS WHICH WERE CONSIDERED BUT WHOSE MOLE FRACTIONS
    WERE LESS THAN 5.000000E-06 FOR ALL ASSIGNED CONDITIONS

 *C              HNO             HNO2            HNO3            *NH            
 N2O3            O3             






 O/F =  22.852550

                       EFFECTIVE FUEL     EFFECTIVE OXIDANT        MIXTURE
 ENTHALPY                  h(2)/R              h(1)/R               h0/R
 (KG-MOL)(K)/KG        0.00000000E+00      0.00000000E+00      0.00000000E+00

 KG-FORM.WT./KG             bi(2)               bi(1)               b0i
  *H                   0.99212255E+00      0.00000000E+00      0.41593982E-01
  *N                   0.00000000E+00      0.53915890E-01      0.51655507E-01
  *O                   0.00000000E+00      0.14486046E-01      0.13878729E-01
  *Ar                  0.00000000E+00      0.32331996E-03      0.30976501E-03
  *C                   0.00000000E+00      0.11013248E-04      0.10551526E-04

 POINT ITN      T            H           N           O           AR
                    C 
   1    5    3000.000     -11.374     -14.518     -17.837     -27.215
                 -24.390
   2    6    2000.000     -10.689     -13.763     -21.841     -26.263
                 -21.261
   3    5    3000.000     -12.569     -15.738     -18.441     -29.650
                 -26.141
   4    7    2000.000     -11.843     -14.915     -21.838     -28.566
                 -23.567
   5    6    3000.000     -14.104     -17.002     -19.702     -32.179
                 -27.334
   6    8    2000.000     -13.000     -16.068     -21.832     -30.871
                 -25.881




               THERMODYNAMIC EQUILIBRIUM PROPERTIES AT ASSIGNED

                           TEMPERATURE AND PRESSURE

 CASE = Example-1      

             REACTANT                       MOLES         ENERGY      TEMP
                                                          CAL/MOL       K
 FUEL        H2                           1.0000000         0.000      0.000
 OXIDANT     Air                          1.0000000         0.000      0.000

 O/F=   22.85255  %FUEL=  4.192424  R,EQ.RATIO= 1.500000  PHI,EQ.RATIO= 1.500761

 THERMODYNAMIC PROPERTIES

 P, ATM            1.0000   1.0000  0.10000  0.10000  0.01000  0.01000
 T, K             3000.00  2000.00  3000.00  2000.00  3000.00  2000.00
 RHO, G/CC       8.1217-5 1.2975-4 7.1159-6 1.2964-5 5.6716-7 1.2929-6
 H, CAL/G          718.65  -120.70  1550.12  -116.20  3208.24  -101.78
 U, CAL/G          420.48  -307.35  1209.80  -303.01  2781.24  -289.09
 G, CAL/G        -8818.84 -5830.65 -9545.38 -6260.58 -10424.5 -6691.18
 S, CAL/(G)(K)     3.1792   2.8550   3.6985   3.0722   4.5442   3.2947

 M, (1/n)          19.994   21.293   17.518   21.275   13.962   21.219
 (dLV/dLP)t      -1.03310 -1.00019 -1.08571 -1.00061 -1.08710 -1.00198
 (dLV/dLT)p        1.6653   1.0055   2.6677   1.0177   2.6421   1.0570
 Cp, CAL/(G)(K)    1.8253   0.4671   4.1929   0.5000   4.9230   0.6077
 GAMMAs            1.1337   1.2529   1.1196   1.2389   1.1296   1.2051
 SON VEL,M/SEC     1189.3    989.2   1262.6    984.0   1420.6    971.8

 MOLE FRACTIONS

 *Ar              0.00619  0.00660  0.00543  0.00659  0.00432  0.00657
 *CO              0.00018  0.00016  0.00017  0.00016  0.00014  0.00016
 *CO2             0.00004  0.00007  0.00002  0.00007  0.00000  0.00007
 *H               0.06025  0.00062  0.18236  0.00196  0.39312  0.00616
 *H2              0.14706  0.14737  0.13472  0.14676  0.06261  0.14490
 H2O              0.22224  0.29508  0.11131  0.29450  0.01465  0.29261
 *N               0.00001  0.00000  0.00003  0.00000  0.00008  0.00000
 *NO              0.00565  0.00001  0.00912  0.00003  0.00729  0.00008
 *N2              0.51356  0.54995  0.44786  0.54948  0.35692  0.54799
 *O               0.00755  0.00000  0.04129  0.00000  0.11694  0.00004
 *OH              0.03276  0.00014  0.05421  0.00044  0.03310  0.00140
 *O2              0.00451  0.00000  0.01349  0.00000  0.01082  0.00003

  * THERMODYNAMIC PROPERTIES FITTED TO 20000.K

    PRODUCTS WHICH WERE CONSIDERED BUT WHOSE MOLE FRACTIONS
    WERE LESS THAN 5.000000E-06 FOR ALL ASSIGNED CONDITIONS

 *C              HNO             HNO2            HNO3            HO2            
 *NH             N2O3            O3             



