
 *******************************************************************************

         NASA-GLENN CHEMICAL EQUILIBRIUM PROGRAM CEA2, MAY 21, 2004
                   BY  BONNIE MCBRIDE AND SANFORD GORDON
      REFS: NASA RP-1311, PART I, 1994 AND NASA RP-1311, PART II, 1996

 *******************************************************************************



 !  EXAMPLE 7:
 !     (a)  Shock tube problem (shock).
 !     (b)  Reactants are H2, O2, and Ar gases at 300 K.  Note that for shock
 !          problems reactants must be gaseous species in the thermodynamic
 !          data base.  The program calculates properties of the
 !          reactants at the temperature given (300 K) using the thermo.lib
 !          coefficients.
 !     (c)  Reactants are given in moles (moles = ...).
 !     (d)  Initial gas pressures are 10 and 20 mm Hg (p,mmhg=10,20,)
 !     (e)  Seven initial gas velocities are assigned (u1=1000,1100,1200,
 !          1250,1300,1350,1400,).  Note units of u1 are always m/s.
 !     (f)  Equilibrium calculations are to be performed for incident shock
 !          conditions (incd  eql).
 !     (g)  Frozen calculations are to be performed for incident shock
 !          conditions (incd  froz).
 !     (h)  No 'outp' dataset is given since the default values of the
 !          the parameters have the desired  values (e.g. SI units).
  
 reac   name= H2  moles= 0.050  t(k) 300.00
        name= O2  moles= 0.050  t(k) 300.00
        name= Ar  moles= 0.900  t(k) 300.00
  
 problem  case=7 p,mmhg=10, shock u1=1100,1200,1250,1300,1350,1400,
   incd refl eql
  
 end

 OPTIONS: TP=F  HP=F  SP=F  TV=F  UV=F  SV=F  DETN=F  SHOCK=T  REFL=T  INCD=T
 RKT=F  FROZ=F  EQL=T  IONS=F  SIUNIT=T  DEBUGF=F  SHKDBG=F  DETDBG=F  TRNSPT=F

 TRACE= 0.00E+00  S/R= 0.000000E+00  H/R= 0.000000E+00  U/R= 0.000000E+00

 P,BAR =     0.013332

    REACTANT           MOLES    (ENERGY/R),K   TEMP,K  DENSITY
        EXPLODED FORMULA
 N: H2               0.050000   0.641759E+01   300.00  0.0000
          H  2.00000
 N: O2               0.050000   0.653777E+01   300.00  0.0000
          O  2.00000
 N: Ar               0.900000   0.462500E+01   300.00  0.0000
          AR 1.00000

  SPECIES BEING CONSIDERED IN THIS SYSTEM
 (CONDENSED PHASE MAY HAVE NAME LISTED SEVERAL TIMES)
  LAST thermo.inp UPDATE:    9/09/04

  g 3/98  *Ar              g 6/97  *H               g 4/02  HO2            
  tpis78  *H2              g 8/89  H2O              g 6/99  H2O2           
  g 5/97  *O               g 4/02  *OH              tpis89  *O2            
  g 8/01  O3               g11/99  H2O(cr)          g 8/01  H2O(L)         
  g 8/01  H2O(L)         

   *** INPUT FOR SHOCK PROBLEMS ***

 INCDEQ = T   REFLEQ = T   INCDFZ = F    REFLFZ = F

 U1 =    1.100000E+03 1.200000E+03 1.250000E+03 1.300000E+03 1.350000E+03
         1.400000E+03

 MACH1 = 0.000000E+00 0.000000E+00 0.000000E+00 0.000000E+00 0.000000E+00
         0.000000E+00

 O/F =   0.000000

                       EFFECTIVE FUEL     EFFECTIVE OXIDANT        MIXTURE
 ENTHALPY                  h(2)/R              h(1)/R               h0/R
 (KG-MOL)(K)/KG        0.12774942E+00      0.00000000E+00      0.12774942E+00

 KG-FORM.WT./KG             bi(2)               bi(1)               b0i
  *H                   0.26557650E-02      0.00000000E+00      0.26557650E-02
  *O                   0.26557650E-02      0.00000000E+00      0.26557650E-02
  *Ar                  0.23901885E-01      0.00000000E+00      0.23901885E-01




                         SHOCK WAVE PARAMETERS ASSUMING

                 EQUILIBRIUM COMPOSITION FOR INCIDENT SHOCKED CONDITIONS


 CASE = 7              

             REACTANT                       MOLES         ENERGY      TEMP
                                                         KJ/KG-MOL      K
 NAME        H2                           0.0500000        53.359    300.000
 NAME        O2                           0.0500000        54.358    300.000
 NAME        Ar                           0.9000000        38.455    300.000

 O/F=    0.00000  %FUEL=  0.000000  R,EQ.RATIO= 0.500000  PHI,EQ.RATIO= 0.000000

 INITIAL GAS (1)
 MACH NUMBER1      3.3528   3.6576   3.8100   3.9624   4.1148   4.2672
 U1, M/SEC        1100.00  1200.00  1250.00  1300.00  1350.00  1400.00
 P, BAR           0.01333  0.01333  0.01333  0.01333  0.01333  0.01333
 T, K              300.00   300.00   300.00   300.00   300.00   300.00
 RHO, KG/CU M    2.0126-2 2.0126-2 2.0126-2 2.0126-2 2.0126-2 2.0126-2
 H, KJ/KG          1.0622   1.0622   1.0622   1.0622   1.0622   1.0622
 U, KJ/KG         -65.182  -65.182  -65.182  -65.182  -65.182  -65.182
 G, KJ/KG        -1556.26 -1556.26 -1556.26 -1556.26 -1556.26 -1556.26
 S, KJ/(KG)(K)     5.1911   5.1911   5.1911   5.1911   5.1911   5.1911

 M, (1/n)          37.654   37.654   37.654   37.654   37.654   37.654
 Cp, KJ/(KG)(K)    0.5742   0.5742   0.5742   0.5742   0.5742   0.5742
 GAMMAs            1.6249   1.6249   1.6249   1.6249   1.6249   1.6249
 SON VEL,M/SEC      328.1    328.1    328.1    328.1    328.1    328.1

 SHOCKED GAS (2)--INCIDENT--EQUILIBRIUM
 U2, M/SEC         666.38   575.19   558.80   546.82   536.92   527.83
 P, BAR           0.10933  0.16423  0.18722  0.21039  0.23424  0.25908
 T, K             1528.52  1816.43  1930.79  2040.82  2147.14  2249.06
 RHO, KG/CU M    3.3222-2 4.1988-2 4.5020-2 4.7847-2 5.0603-2 5.3381-2
 H, KJ/KG          384.03   555.64   626.18   696.56   768.17   841.76
 U, KJ/KG          54.945   164.50   210.33   256.84   305.26   356.42
 G, KJ/KG        -8121.78 -9579.93 -10165.7 -10731.4 -11278.9 -11803.6
 S, KJ/(KG)(K)     5.5648   5.5800   5.5894   5.5997   5.6108   5.6225

 M, (1/n)          38.618   38.612   38.603   38.589   38.566   38.530
 (dLV/dLP)t      -1.00001 -1.00007 -1.00015 -1.00029 -1.00055 -1.00098
 (dLV/dLT)p        1.0003   1.0025   1.0051   1.0095   1.0167   1.0277
 Cp, KJ/(KG)(K)    0.5878   0.6096   0.6290   0.6588   0.7031   0.7652
 GAMMAs            1.5785   1.5503   1.5285   1.4993   1.4630   1.4222
 SON VEL,M/SEC      720.7    778.7    797.3    812.0    822.9    830.8

 P2/P1              8.200   12.318   14.043   15.781   17.570   19.432
 T2/T1              5.095    6.055    6.436    6.803    7.157    7.497
 M2/M1             1.0256   1.0254   1.0252   1.0248   1.0242   1.0233
 RHO2/RHO1         1.6507   2.0863   2.2369   2.3774   2.5143   2.6524
 V2, M/SEC         433.62   624.81   691.20   753.18   813.08   872.17

 MOLE FRACTIONS

 *Ar             9.2305-1 9.2289-1 9.2270-1 9.2236-1 9.2180-1 9.2094-1
 *H              1.2167-7 7.1209-6 2.5615-5 7.6407-5 1.9633-4 4.4248-4
 HO2             2.1104-8 1.2212-7 2.1147-7 3.3739-7 5.0412-7 7.1098-7
 *H2             2.6593-6 4.9279-5 1.2308-4 2.6816-4 5.2334-4 9.2590-4
 H2O             5.1235-2 5.0930-2 5.0603-2 5.0071-2 4.9259-2 4.8095-2
 H2O2            6.684-10 3.164 -9 5.151 -9 7.793 -9 1.111 -8 1.502 -8
 *O              2.8709-6 5.5898-5 1.4199-4 3.1455-4 6.2515-4 1.1304-3
 *OH             8.6420-5 5.7729-4 1.0447-3 1.7282-3 2.6599-3 3.8402-3
 *O2             2.5619-2 2.5490-2 2.5366-2 2.5185-2 2.4938-2 2.4629-2

  * THERMODYNAMIC PROPERTIES FITTED TO 20000.K

    PRODUCTS WHICH WERE CONSIDERED BUT WHOSE MOLE FRACTIONS
    WERE LESS THAN 5.000000E-09 FOR ALL ASSIGNED CONDITIONS

 O3              H2O(cr)         H2O(L)         

 SHOCKED GAS (5)--REFLECTED--EQUILIBRIUM
 U5, M/SEC         252.71   303.74   315.75   325.16   333.06   340.11
 P, BAR           0.25904  0.48321  0.58319  0.68801  0.80089  0.92469
 T, K             2108.38  2576.82  2712.20  2829.43  2936.81  3039.45
 RHO, KG/CU M    5.7006-2 8.6371-2 9.8553-2 1.1083-1 1.2353-1 1.3689-1
 H, KJ/KG          740.71  1120.15  1266.85  1411.25  1557.42  1708.34
 U, KJ/KG          286.30   560.69   675.09   790.47   909.10  1032.84
 G, KJ/KG        -11015.9 -13317.3 -13968.5 -14527.7 -15037.1 -15522.9
 S, KJ/(KG)(K)     5.5762   5.6028   5.6173   5.6333   5.6505   5.6692

 M, (1/n)          38.578   38.296   38.108   37.896   37.664   37.412
 (dLV/dLP)t      -1.00041 -1.00387 -1.00617 -1.00866 -1.01121 -1.01372
 (dLV/dLT)p        1.0129   1.0922   1.1380   1.1839   1.2277   1.2677
 Cp, KJ/(KG)(K)    0.6796   1.0782   1.2767   1.4623   1.6280   1.7686
 GAMMAs            1.4814   1.3095   1.2741   1.2525   1.2394   1.2319
 SON VEL,M/SEC      820.4    855.9    868.3    881.8    896.4    912.2

 P5/P2              2.369    2.942    3.115    3.270    3.419    3.569
 T5/T2              1.379    1.419    1.405    1.386    1.368    1.351
 M5/M2             0.9990   0.9918   0.9872   0.9820   0.9766   0.9710
 RHO5/RHO2         1.7159   2.0570   2.1891   2.3164   2.4412   2.5644
 U5+V2,M/SEC       180.91   321.07   375.45   428.02   480.02   532.06

 MOLE FRACTIONS

 *Ar             9.2209-1 9.1534-1 9.1086-1 9.0580-1 9.0024-1 8.9421-1
 *H              1.2694-4 2.9063-3 5.4946-3 8.8063-3 1.2793-2 1.7442-2
 HO2             4.5391-7 1.8461-6 2.4385-6 2.9675-6 3.4205-6 3.7813-6
 *H2             3.8641-4 3.3399-3 4.9585-3 6.4716-3 7.7897-3 8.8548-3
 H2O             4.9672-2 4.1575-2 3.7080-2 3.2500-2 2.7955-2 2.3521-2
 H2O2            1.0540-8 3.6784-8 4.6000-8 5.2861-8 5.7247-8 5.9031-8
 *O              4.5802-4 4.5902-3 7.4646-3 1.0813-2 1.4630-2 1.8952-2
 *OH             2.2103-3 8.9658-3 1.1632-2 1.3892-2 1.5740-2 1.7159-2
 *O2             2.5057-2 2.3285-2 2.2512-2 2.1717-2 2.0847-2 1.9859-2

  * THERMODYNAMIC PROPERTIES FITTED TO 20000.K

    PRODUCTS WHICH WERE CONSIDERED BUT WHOSE MOLE FRACTIONS
    WERE LESS THAN 5.000000E-09 FOR ALL ASSIGNED CONDITIONS

 O3              H2O(cr)         H2O(L)         



