
 *******************************************************************************

         NASA-GLENN CHEMICAL EQUILIBRIUM PROGRAM CEA2, MAY 21, 2004
                   BY  BONNIE MCBRIDE AND SANFORD GORDON
      REFS: NASA RP-1311, PART I, 1994 AND NASA RP-1311, PART II, 1996

 *******************************************************************************



 !  EXAMPLE 3:
 !     (a)  Combustion or assigned-enthalpy-and-pressure problem (hp).
 !     (b)  Fuels are 'C7H8(L)' and 'C8H18(L),n-octa' at 298.15 K. The oxidant is
 !          air at 700 K.
 !     (c)  Oxidant-to-fuel weight ratio is 17 (o/f =17).  Weight fractions are
 !          fractions of fuel relative to total fuel and fractions of oxidant
 !          relative to total oxidant.
 !     (d)  Mixture enthalpy is calculated from reactant values given in
 !          thermo.lib. This is because data for these species are given in
 !          thermo.lib and the species names match exactly.
 !     (e)  Many species are omitted from the product data base ('omit' dataset).
 !          Note:  these species names must match those used in thermo.lib.
 !     (f)  Assigned pressures are 100, 10, and 1 bar (p(bar)=100,10,1).
 !     (g)  Mixture properties are to be printed in SI units (siunits).
 !     (h)  Mole fractions > 1.e-15 are to be in e-format (trace=1.e-15).
 !
 reac
      oxid Air  wtfrac= 1   t(k)=700.0
      fuel C7H8(L)   wtfrac= .4   t(k)= 298.15
      fuel C8H18(L),n-octa   wtfrac= .6 t(k)= 298.15
 prob   case=Example-3   hp  p(bar)=100,10,1, o/f = 17
 output siunits  trace=1.e-15
  
 omit CCN              CNC              C2N2             C2O
      C3H4,allene      C3H4,propyne     C3H4,cyclo-      C3
      C3H5,allyl       C3H6,propylene   C3H6,cyclo-      C3H3,propargyl
      C3H6O            C3H7,n-propyl    C3H7,i-propyl    Jet-A(g)
      C3O2             C4               C4H2             C3H8O,2propanol
      C4H4,1,3-cyclo-  C4H6,butadiene   C4H6,2-butyne    C3H8O,1propanol
      C4H8,tr2-butene  C4H8,isobutene   C4H8,cyclo-      C4H6,cyclo-
      (CH3COOH)2       C4H9,n-butyl     C4H9,i-butyl     C4H8,1-butene
      C4H9,s-butyl     C4H9,t-butyl     C4H10,isobutane  C4H8,cis2-buten
      C4H10,n-butane   C4N2             C5               C3H8
      C5H6,1,3cyclo-   C5H8,cyclo-      C5H10,1-pentene  C10H21,n-decyl
      C5H10,cyclo-     C5H11,pentyl     C5H11,t-pentyl   C12H10,biphenyl
      C5H12,n-pentane  C5H12,i-pentane  CH3C(CH3)2CH3    C12H9,o-bipheny
      C6H6             C6H5OH,phenol    C6H10,cyclo-     C6H2
      C6H12,1-hexene   C6H12,cyclo-     C6H13,n-hexyl    C6H5,phenyl
      C7H7,benzyl      C7H8             C7H8O,cresol-mx  C6H5O,phenoxy
      C7H14,1-heptene  C7H15,n-heptyl   C7H16,n-heptane  C10H8,azulene
      C8H8,styrene     C8H10,ethylbenz  C8H16,1-octene   C10H8,napthlene
      C8H17,n-octyl    C8H18,isooctane  C8H18,n-octane   C9H19,n-nonyl
      Jet-A(L)         C6H6(L)          H2O(s)           H2O(L)
 end  End all input for example 3

 OPTIONS: TP=F  HP=T  SP=F  TV=F  UV=F  SV=F  DETN=F  SHOCK=F  REFL=F  INCD=F
 RKT=F  FROZ=F  EQL=F  IONS=F  SIUNIT=T  DEBUGF=F  SHKDBG=F  DETDBG=F  TRNSPT=F

 TRACE= 1.00E-15  S/R= 0.000000E+00  H/R= 0.000000E+00  U/R= 0.000000E+00

 P,BAR =   100.000000    10.000000     1.000000

    REACTANT          WT.FRAC   (ENERGY/R),K   TEMP,K  DENSITY
        EXPLODED FORMULA
 O: Air              1.000000   0.143092E+04   700.00  0.0000
          N  1.56168  O  0.41959  AR 0.00937  C  0.00032
 F: C7H8(L)          0.400000   0.146491E+04   298.15  0.0000
          C  7.00000  H  8.00000
 F: C8H18(L),n-octa  0.600000  -0.300992E+05   298.15  0.0000
          C  8.00000  H 18.00000

  SPECIES BEING CONSIDERED IN THIS SYSTEM
 (CONDENSED PHASE MAY HAVE NAME LISTED SEVERAL TIMES)
  LAST thermo.inp UPDATE:    9/09/04

  g 3/98  *Ar              g 7/97  *C               tpis79  *CH            
  g 4/02  CH2              g 4/02  CH3              g11/00  CH2OH          
  g 7/00  CH3O             g 8/99  CH4              g 7/00  CH3OH          
  srd 01  CH3OOH           g 8/99  *CN              g12/99  CNN            
  tpis79  *CO              g 9/99  *CO2             tpis91  COOH           
  tpis91  *C2              g 6/01  C2H              g 1/91  C2H2,acetylene 
  g 5/01  C2H2,vinylidene  g 4/02  CH2CO,ketene     g 3/02  O(CH)2O        
  srd 01  HO(CO)2OH        g 7/01  C2H3,vinyl       g 9/00  CH3CN          
  g 6/96  CH3CO,acetyl     g 1/00  C2H4             g 8/88  C2H4O,ethylen-o
  g 8/88  CH3CHO,ethanal   g 6/00  CH3COOH          srd 01  OHCH2COOH      
  g 7/00  C2H5             g 7/00  C2H6             g 8/88  CH3N2CH3       
  g 8/88  C2H5OH           g 7/00  CH3OCH3          srd 01  CH3O2CH3       
  srd 01  OCCN             n 4/98  C3H3,1-propynl   n 4/98  C3H3,2-propynl 
  g 6/01  C3H6O,propylox   g 6/97  C3H6O,acetone    g 1/02  C3H6O,propanal 
  srd 01  CNCOCN           g 7/01  C4H2,butadiyne   n10/93  C4H6,1butyne   
  n10/93  C4H6,2butyne     g 6/01  C6H14,n-hexane   n10/85  C7H16,2-methylh
  g 3/01  C10H8,naphthale  g 6/97  *H               g 6/01  HCN            
  g 1/01  HCO              tpis89  HCCN             g 6/01  HCCO           
  g 6/01  HNC              g 7/00  HNCO             g10/01  HNO            
  tpis89  HNO2             g 5/99  HNO3             g 4/02  HO2            
  tpis78  *H2              g 5/01  HCHO,formaldehy  g 6/01  HCOOH          
  g 8/89  H2O              g 6/99  H2O2             g 6/01  (HCOOH)2       
  g 5/97  *N               g 6/01  NCO              g 4/99  *NH            
  g 3/01  NH2              tpis89  NH3              tpis89  NH2OH          
  tpis89  *NO              g 4/99  NO2              j12/64  NO3            
  tpis78  *N2              g 6/01  NCN              g 5/99  N2H2           
  tpis89  NH2NO2           g 4/99  N2H4             g 4/99  N2O            
  g 4/99  N2O3             tpis89  N2O4             g 4/99  N2O5           
  tpis89  N3               g 4/99  N3H              g 5/97  *O             
  g 4/02  *OH              tpis89  *O2              g 8/01  O3             
  n 4/83  C(gr)            n 4/83  C(gr)            n 4/83  C(gr)          
  g11/99  H2O(cr)        

 O/F =  17.000000

                       EFFECTIVE FUEL     EFFECTIVE OXIDANT        MIXTURE
 ENTHALPY                  h(2)/R              h(1)/R               h0/R
 (KG-MOL)(K)/KG       -0.15174026E+03      0.49401390E+02      0.38226854E+02

 KG-FORM.WT./KG             bi(2)               bi(1)               b0i
  *N                   0.00000000E+00      0.53915890E-01      0.50920563E-01
  *O                   0.00000000E+00      0.14486046E-01      0.13681266E-01
  *Ar                  0.00000000E+00      0.32331996E-03      0.30535774E-03
  *C                   0.72410090E-01      0.11013248E-04      0.40331842E-02
  *H                   0.12927767E+00      0.00000000E+00      0.71820928E-02

 POINT ITN      T            N           O           AR          C 
                    H 
   1   19    2418.660     -11.651     -14.247     -21.786     -21.404
                 -11.893
   2    5    2390.593     -12.783     -15.356     -24.065     -21.676
                 -12.540
   3    5    2338.840     -13.897     -16.427     -26.324     -22.196
                 -13.250




         THERMODYNAMIC EQUILIBRIUM COMBUSTION PROPERTIES AT ASSIGNED

                                   PRESSURES

 CASE = Example-3      

             REACTANT                    WT FRACTION      ENERGY      TEMP
                                          (SEE NOTE)     KJ/KG-MOL      K  
 OXIDANT     Air                          1.0000000     11897.374    700.000
 FUEL        C7H8(L)                      0.4000000     12179.997    298.150
 FUEL        C8H18(L),n-octa              0.6000000   -250260.000    298.150

 O/F=   17.00000  %FUEL=  5.555556  R,EQ.RATIO= 0.852071  PHI,EQ.RATIO= 0.851846

 THERMODYNAMIC PROPERTIES

 P, BAR            100.00   10.000   1.0000
 T, K             2418.66  2390.59  2338.84
 RHO, KG/CU M    1.4431 1 1.4570 0 1.4834-1
 H, KJ/KG          317.84   317.84   317.84
 U, KJ/KG         -375.11  -368.52  -356.30
 G, KJ/KG        -19438.0 -20787.3 -21879.3
 S, KJ/(KG)(K)     8.1681   8.8284   9.4907

 M, (1/n)          29.021   28.959   28.846
 (dLV/dLP)t      -1.00068 -1.00159 -1.00324
 (dLV/dLT)p        1.0189   1.0447   1.0920
 Cp, KJ/(KG)(K)    1.6094   1.8167   2.2066
 GAMMAs            1.2257   1.2061   1.1800
 SON VEL,M/SEC      921.6    909.9    891.9

 MOLE FRACTIONS

 *Ar             8.8617-3 8.8430-3 8.8084-3
 *CN             5.851-14 1.066-13 1.178-13
 *CO             1.6773-3 4.3120-3 9.1860-3
 *CO2            1.1537-1 1.1249-1 1.0716-1
 COOH            5.1570-8 2.3271-8 8.6129-9
 *H              2.7554-5 1.2385-4 4.5515-4
 HCN             1.055-11 1.178-11 8.635-12
 HCO             7.381-10 8.917-10 7.600-10
 HNC             1.016-12 1.093-12 7.483-13
 HNCO            1.232 -9 5.143-10 1.642-10
 HNO             4.2203-7 2.0790-7 9.0989-8
 HNO2            1.8498-6 3.2650-7 5.7312-8
 HNO3            1.130 -9 6.623-11 4.036-12
 HO2             7.9912-6 4.2569-6 2.1612-6
 *H2             2.5064-4 6.6103-4 1.4836-3
 HCHO,formaldehy 1.712-11 1.161-11 5.553-12
 HCOOH           6.460 -9 1.641 -9 3.428-10
 H2O             1.0277-1 1.0136-1 9.9015-2
 H2O2            9.8795-7 2.9479-7 8.3673-8
 *N              1.1495-8 2.7422-8 5.0672-8
 NCO             8.312-11 5.822-11 2.954-11
 *NH             2.9342-9 3.8640-9 3.8817-9
 NH2             1.709 -9 1.278 -9 7.371-10
 NH3             3.891 -9 1.718 -9 6.126-10
 NH2OH           1.021-11 1.448-12 1.681-13
 *NO             6.7762-3 6.5527-3 6.1447-3
 NO2             2.3467-5 7.5641-6 2.4794-6
 NO3             1.925-10 1.949-11 1.995-12
 *N2             7.3547-1 7.3403-1 7.3136-1
 N2H2            5.172-13 1.198-13 2.100-14
 NH2NO2          2.436-15 6.728-17 1.649-18
 N2O             3.6449-6 1.1134-6 3.2962-7
 N2O3            2.438-11 7.706-13 2.434-14
 N2O4            3.097-15 3.282-17 3.663-19
 N3              1.234-12 3.000-13 5.750-14
 N3H             3.853-13 5.234-14 5.580-15
 *O              1.5506-4 4.3112-4 1.0664-3
 *OH             2.3483-3 3.8160-3 5.7214-3
 *O2             2.6252-2 2.7365-2 2.9599-2
 O3              1.2096-8 3.7201-9 1.1154-9

  * THERMODYNAMIC PROPERTIES FITTED TO 20000.K

    PRODUCTS WHICH WERE CONSIDERED BUT WHOSE MOLE FRACTIONS
    WERE LESS THAN 1.000000E-15 FOR ALL ASSIGNED CONDITIONS

 *C              *CH             CH2             CH3             CH2OH          
 CH3O            CH4             CH3OH           CH3OOH          CNN            
 *C2             C2H             C2H2,acetylene  C2H2,vinylidene CH2CO,ketene   
 O(CH)2O         HO(CO)2OH       C2H3,vinyl      CH3CN           CH3CO,acetyl   
 C2H4            C2H4O,ethylen-o CH3CHO,ethanal  CH3COOH         OHCH2COOH      
 C2H5            C2H6            CH3N2CH3        C2H5OH          CH3OCH3        
 CH3O2CH3        OCCN            C3H3,1-propynl  C3H3,2-propynl  C3H6O,propylox 
 C3H6O,acetone   C3H6O,propanal  CNCOCN          C4H2,butadiyne  C4H6,1butyne   
 C4H6,2butyne    C6H14,n-hexane  C7H16,2-methylh C10H8,naphthale HCCN           
 HCCO            (HCOOH)2        NCN             N2H4            N2O5           
 C(gr)           H2O(cr)        

 NOTE. WEIGHT FRACTION OF FUEL IN TOTAL FUELS AND OF OXIDANT IN TOTAL OXIDANTS



